data_1
_symmetry_space_group_name_H-M   ' P-1 '
loop_
_symmetry_equiv_pos_site_id
_symmetry_equiv_pos_as_xyz
1 X,Y,Z
2 -X,-Y,-Z
_cell_length_a                    12.8713
_cell_length_b                    10.3679
_cell_length_c                    8.055
_cell_angle_alpha                 67.0892
_cell_angle_beta                  80.1848
_cell_angle_gamma                 86.1846
loop_
_atom_site_label
_atom_site_type_symbol
_atom_site_fract_x
_atom_site_fract_y
_atom_site_fract_z
C1      C   0.143332   0.049353   0.384282
C2      C   0.126712   0.117904   0.507707
C3      C   0.078782   0.248627   0.463550
C4      C   0.045266   0.317484   0.291481
C5      C   0.056392   0.250190   0.172359
C6      C   0.102152   0.115100   0.216684
C7      C   0.192450  -0.088376   0.427117
C8      C   0.174040  -0.164746   0.321800
C9      C   0.132724  -0.095550   0.154737
C10     C   0.102408   0.041134   0.099550
C11     C   0.249957  -0.157223   0.579012
C12     C   0.249925  -0.306822   0.654000
C13     C   0.221742  -0.381662   0.552743
C14     C   0.192683  -0.311813   0.385171
C15     C   0.307491  -0.088419   0.661892
C16     C   0.325896  -0.164789   0.843756
C17     C   0.307178  -0.311820   0.927814
C18     C   0.278074  -0.381668   0.830280
C19     C   0.356643   0.049272   0.566684
C20     C   0.397885   0.114973   0.668369
C21     C   0.397621   0.041022   0.859634
C22     C   0.367260  -0.095627   0.941447
C23     C   0.373230   0.117813   0.374560
C24     C   0.421211   0.248475   0.287702
C25     C   0.454795   0.317286   0.390747
C26     C   0.443686   0.250008   0.577304
C27     C   0.062591   0.313664   0.593764
C28     C   0.437373   0.313493   0.092311
N1      N   0.049395   0.367022   0.698830
N2      N   0.450535   0.366836  -0.066226
H1      H   0.149622   0.067395   0.641334
H2      H   0.009520   0.420414   0.257535
H3      H   0.028032   0.299319   0.042375
H4      H   0.072935   0.093479  -0.028965
H5      H   0.126044  -0.155450   0.072401
H6      H   0.176969  -0.367839   0.302827
H7      H   0.226918  -0.495187   0.609692
H8      H   0.272853  -0.495189   0.887145
H9      H   0.322870  -0.367856   1.066326
H10     H   0.373930  -0.155515   1.083821
H11     H   0.427145   0.093325   0.935675
H12     H   0.472088   0.299101   0.658052
H13     H   0.490572   0.420173   0.321535
H14     H   0.350271   0.067335   0.291576
#END
