data_1
_symmetry_space_group_name_H-M   ' P-1 '
loop_
_symmetry_equiv_pos_site_id
_symmetry_equiv_pos_as_xyz
1 X,Y,Z
2 -X,-Y,-Z
_cell_length_a                    10.3618
_cell_length_b                    8.055
_cell_length_c                    12.8712
_cell_angle_alpha                 80.1855
_cell_angle_beta                  86.216
_cell_angle_gamma                 67.1692
loop_
_atom_site_label
_atom_site_type_symbol
_atom_site_fract_x
_atom_site_fract_y
_atom_site_fract_z
C1      C   0.549344   0.066398   0.356666
C2      C   0.617891  -0.125590   0.373283
C3      C   0.748617  -0.212178   0.421220
C4      C   0.817468  -0.108986   0.454741
C5      C   0.750182   0.077437   0.443603
C6      C   0.615085   0.168231   0.397848
C7      C   0.411618   0.161322   0.307548
C8      C   0.335253   0.343020   0.325958
C9      C   0.404445   0.440871   0.367271
C10     C   0.541126   0.359350   0.397581
C11     C   0.342774   0.078284   0.250038
C12     C   0.193168   0.152922   0.250071
C13     C   0.118337   0.329041   0.278249
C14     C   0.188181   0.426752   0.307308
C15     C   0.411596  -0.073430   0.192513
C16     C   0.335217  -0.178906   0.174102
C17     C   0.188185  -0.115897   0.192807
C18     C   0.118334   0.051501   0.221914
C19     C   0.549281  -0.115933   0.143355
C20     C   0.614988  -0.283342   0.102112
C21     C   0.541036  -0.400633   0.102373
C22     C   0.404382  -0.345771   0.132742
C23     C   0.617817   0.007639   0.126767
C24     C   0.748498  -0.036206   0.078788
C25     C   0.817306  -0.208077   0.045200
C26     C   0.750028  -0.327331   0.056314
C27     C   0.813650  -0.407444   0.437412
C28     C   0.813520   0.094147   0.062628
N1      N   0.867007  -0.565881   0.450606
N2      N   0.866852   0.199341   0.049475
H1      H   0.567389  -0.208702   0.350379
H2      H   0.920393  -0.177983   0.490484
H3      H   0.799296   0.158303   0.471972
H4      H   0.593463   0.435512   0.427061
H5      H   0.344547   0.583130   0.373948
H6      H   0.132155   0.565127   0.323019
H7      H   0.004815   0.385636   0.273075
H8      H   0.004819   0.108169   0.227141
H9      H   0.132155  -0.198361   0.177111
H10     H   0.344488  -0.428240   0.126065
H11     H   0.593347  -0.528999   0.072844
H12     H   0.799124  -0.457183   0.027909
H13     H   0.920196  -0.241770   0.009434
H14     H   0.567344   0.141111   0.149730
#END
